Info: SIMULATION PARAMETERS:
Info: TIMESTEP               2
Info: NUMBER OF STEPS        0
Info: STEPS PER CYCLE        10
Info: PERIODIC CELL BASIS 1  42 0 0
Info: PERIODIC CELL BASIS 2  0 44 0
Info: PERIODIC CELL BASIS 3  0 0 47
Info: PERIODIC CELL CENTER   31 29 17.5
Info: WRAPPING ALL CLUSTERS AROUND PERIODIC BOUNDARIES ON OUTPUT.
Info: FIRST LDB TIMESTEP     50
Info: LAST LDB TIMESTEP     -1
Info: HOM BACKGROUND SCALING 1
Info: PME BACKGROUND SCALING 1
Info: MIN ATOMS PER PATCH    40
Info: EMPTY PATCH LOAD       40 ATOMS
Info: INITIAL TEMPERATURE    310
Info: CENTER OF MASS MOVING INITIALLY? NO
Info: DIELECTRIC             1
Info: EXCLUDE                SCALED ONE-FOUR
Info: 1-4 ELECTROSTATICS SCALED BY 1
Info: MODIFIED 1-4 VDW PARAMETERS WILL BE USED
Info: DCD FILENAME           ubq_wb_eq.dcd
Info: DCD FREQUENCY          250
Info: DCD FIRST STEP         250
Info: DCD FILE WILL CONTAIN UNIT CELL DATA
Info: XST FILENAME           ubq_wb_eq.xst
Info: XST FREQUENCY          250
Info: NO VELOCITY DCD OUTPUT
Info: NO FORCE DCD OUTPUT
Info: OUTPUT FILENAME        ubq_wb_eq
Info: BINARY OUTPUT FILES WILL BE USED
Info: RESTART FILENAME       ubq_wb_eq.restart
Info: RESTART FREQUENCY      500
Info: BINARY RESTART FILES WILL BE USED
Info: SWITCHING ACTIVE
Info: SWITCHING ON           10
Info: SWITCHING OFF          12
Info: PAIRLIST DISTANCE      14
Info: PAIRLIST SHRINK RATE   0.01
Info: PAIRLIST GROW RATE     0.01
Info: PAIRLIST TRIGGER       0.3
Info: PAIRLISTS PER CYCLE    2
Info: PAIRLISTS ENABLED
Info: MARGIN                 0.495
Info: HYDROGEN GROUP CUTOFF  2.5
Info: PATCH DIMENSION        16.995
Info: ENERGY OUTPUT STEPS    100
Info: ENERGY EVALUATION STEPS    100
Info: OUTPUT ENERGY PRECISION 4
Info: CROSSTERM ENERGY INCLUDED IN DIHEDRAL
Info: TIMING OUTPUT STEPS    1000
Info: PRESSURE OUTPUT STEPS  100
Info: LANGEVIN DYNAMICS ACTIVE
Info: LANGEVIN TEMPERATURE   310
Info: LANGEVIN USING BBK INTEGRATOR
Info: LANGEVIN DAMPING COEFFICIENT IS 1 INVERSE PS
Info: LANGEVIN DYNAMICS NOT APPLIED TO HYDROGENS
Info: LANGEVIN PISTON PRESSURE CONTROL ACTIVE
Info:        TARGET PRESSURE IS 1.01325 BAR
Info:     OSCILLATION PERIOD IS 100 FS
Info:             DECAY TIME IS 50 FS
Info:     PISTON TEMPERATURE IS 310 K
Info:       PRESSURE CONTROL IS GROUP-BASED
Info:    INITIAL STRAIN RATE IS 0 0 0
Info:       CELL FLUCTUATION IS ISOTROPIC
Info: PARTICLE MESH EWALD (PME) ACTIVE
Info: PME TOLERANCE               1e-06
Info: PME EWALD COEFFICIENT       0.257952
Info: PME INTERPOLATION ORDER     4
Info: PME GRID DIMENSIONS         44 44 48
Info: PME MAXIMUM GRID SPACING    1
Info: FULL ELECTROSTATIC EVALUATION FREQUENCY      2
Info: USING VERLET I (r-RESPA) MTS SCHEME.
Info: C1 SPLITTING OF LONG RANGE ELECTROSTATICS
Info: PLACING ATOMS IN PATCHES BY HYDROGEN GROUPS
Info: RIGID BONDS TO HYDROGEN : ALL
Info:         ERROR TOLERANCE : 1e-08
Info:          MAX ITERATIONS : 100
Info: RIGID WATER USING SETTLE ALGORITHM
Info: RANDOM NUMBER SEED     1748539616
Info: USE HYDROGEN BONDS?    NO
Info: COORDINATE PDB         ../common/ubq_wb.pdb
Info: STRUCTURE FILE         ../common/ubq_wb.psf
Info: PARAMETER file: CHARMM format!
Info: PARAMETERS             ../common/par_all27_prot_lipid.inp
Info: USING ARITHMETIC MEAN TO COMBINE L-J SIGMA PARAMETERS
Info: SUMMARY OF PARAMETERS:
Info: 180 BONDS
Info: 447 ANGLES
Info: 566 DIHEDRAL
Info: 46 IMPROPER
Info: 6 CROSSTERM
Info: 119 VDW
Info: 0 VDW_PAIRS
Info: 0 NBTHOLE_PAIRS
Info: STRUCTURE SUMMARY:
Info: 7051 ATOMS
Info: 5117 BONDS
Info: 4197 ANGLES
Info: 3293 DIHEDRALS
Info: 204 IMPROPERS
Info: 74 CROSSTERMS
Info: 0 EXCLUSIONS
Info: 6449 RIGID BONDS
Info: 14704 DEGREES OF FREEDOM
Info: 2542 HYDROGEN GROUPS
Info: 4 ATOMS IN LARGEST HYDROGEN GROUP
Info: 2542 MIGRATION GROUPS
Info: 4 ATOMS IN LARGEST MIGRATION GROUP
Info: TOTAL MASS = 43514.7 amu
Info: TOTAL CHARGE = 1.00955e-06 e
Info: MASS DENSITY = 0.831947 g/cm^3
Info: ATOM DENSITY = 0.0811803 atoms/A^3
Info: ADDED 12578 IMPLICIT EXCLUSIONS
Info: NONBONDED TABLE R-SQUARED SPACING: 0.0625
Info: NONBONDED TABLE SIZE: 769 POINTS
Info: REMOVING COM VELOCITY 0.0539911 -0.0153683 -0.0381871
TCL: Minimizing for 100 steps
ETITLE: TS BOND ANGLE DIHED IMPRP ELECT VDW BOUNDARY MISC KINETIC TOTAL TEMP POTENTIAL TOTAL3 TEMPAVG PRESSURE GPRESSURE VOLUME PRESSAVG GPRESSAVG
ENERGY: 0 263.6137 847.5817 263.7656 10.7299 -18255.4619 2422.2308 0.0000 0.0000 0.0000 -14447.5402 0.0000 -14447.5402 -14447.5402 0.0000 15125.5953 -5454.5313 86856.0000 15125.5953 -5454.5313
ENERGY: 20 98.0342 394.4788 264.5961 10.4291 -19266.1205 1021.9092 0.0000 0.0000 0.0000 -17476.6732 0.0000 -17476.6732 -17476.6732 0.0000 10236.9346 -1601.2868 86856.0000 10236.9346 -1601.2868
ENERGY: 40 106.0547 308.0694 277.2307 49.3437 -20011.5180 884.3858 0.0000 0.0000 0.0000 -18386.4337 0.0000 -18386.4337 -18386.4337 0.0000 9205.6762 -2975.7484 86856.0000 9205.6762 -2975.7484
ENERGY: 60 73.2221 239.3079 265.9379 11.5623 -20757.9046 790.1526 0.0000 0.0000 0.0000 -19377.7217 0.0000 -19377.7217 -19377.7217 0.0000 8840.5371 -3788.6417 86856.0000 8840.5371 -3788.6417
ENERGY: 80 65.6402 239.6765 264.3063 8.9741 -21461.5591 732.7138 0.0000 0.0000 0.0000 -20150.2483 0.0000 -20150.2483 -20150.2483 0.0000 8375.7030 -4747.3772 86856.0000 8375.7030 -4747.3772
ENERGY: 100 90.8818 228.7684 262.0194 10.4759 -21900.3350 756.3764 0.0000 0.0000 0.0000 -20551.8130 0.0000 -20551.8130 -20551.8130 0.0000 8003.4566 -5333.0132 86856.0000 8003.4566 -5333.0132
TCL: Running for 2500 steps
ETITLE: TS BOND ANGLE DIHED IMPRP ELECT VDW BOUNDARY MISC KINETIC TOTAL TEMP POTENTIAL TOTAL3 TEMPAVG PRESSURE GPRESSURE VOLUME PRESSAVG GPRESSAVG
ENERGY: 100 90.8818 228.7684 262.0194 10.4759 -21900.3350 756.3764 0.0000 0.0000 4495.1746 -16056.6385 307.6815 -20551.8130 -16065.3035 307.6815 -4157.3150 -4124.3355 86856.0000 -4157.3150 -4124.3355
ENERGY: 600 208.2242 647.1443 323.1240 33.6661 -23423.1336 1506.1793 0.0000 0.0000 4532.1113 -16172.6845 310.2098 -20704.7958 -16157.0187 311.3158 -461.2942 -429.8723 72466.3469 -7.3269 -7.6434
ENERGY: 1100 216.0095 632.8303 292.3904 42.1309 -23673.2280 1593.9918 0.0000 0.0000 4626.7911 -16269.0841 316.6903 -20895.8752 -16250.5505 315.2266 673.4938 680.2963 70756.5753 -14.9148 -14.1132
ENERGY: 1600 238.9429 641.4709 319.6198 46.3248 -23769.8803 1574.7138 0.0000 0.0000 4662.1485 -16286.6595 319.1104 -20948.8081 -16269.8721 319.6885 681.9736 701.4725 69328.3703 19.4670 19.5398
ENERGY: 2100 237.9269 691.8537 328.3838 44.0607 -23777.4213 1459.4435 0.0000 0.0000 4627.7222 -16388.0305 316.7540 -21015.7527 -16370.3352 315.7856 -555.4136 -522.4910 70031.8784 50.5087 50.7702
ENERGY: 2600 229.1766 710.2762 302.7961 29.4407 -23922.1820 1495.6713 0.0000 0.0000 4535.0751 -16619.7459 310.4126 -21154.8210 -16601.0344 310.7845 -106.5205 -83.2590 69551.6986 -44.5728 -44.9689
