Info: SIMULATION PARAMETERS:
Info: TIMESTEP               2
Info: NUMBER OF STEPS        0
Info: STEPS PER CYCLE        10
Info: FIRST LDB TIMESTEP     50
Info: LAST LDB TIMESTEP     -1
Info: HOM BACKGROUND SCALING 1
Info: MIN ATOMS PER PATCH    40
Info: EMPTY PATCH LOAD       40 ATOMS
Info: INITIAL TEMPERATURE    310
Info: CENTER OF MASS MOVING INITIALLY? NO
Info: DIELECTRIC             1
Info: EXCLUDE                SCALED ONE-FOUR
Info: 1-4 ELECTROSTATICS SCALED BY 1
Info: MODIFIED 1-4 VDW PARAMETERS WILL BE USED
Info: DCD FILENAME           ubq_ww_pcv.dcd
Info: DCD FREQUENCY          500
Info: DCD FIRST STEP         500
Info: XST FILENAME           ubq_ww_pcv.xst
Info: XST FREQUENCY          500
Info: NO VELOCITY DCD OUTPUT
Info: NO FORCE DCD OUTPUT
Info: OUTPUT FILENAME        ubq_ww_pcv
Info: BINARY OUTPUT FILES WILL BE USED
Info: RESTART FILENAME       ubq_ww_pcv.restart
Info: RESTART FREQUENCY      500
Info: BINARY RESTART FILES WILL BE USED
Info: SWITCHING ACTIVE
Info: SWITCHING ON           10
Info: SWITCHING OFF          12
Info: PAIRLIST DISTANCE      14
Info: PAIRLIST SHRINK RATE   0.01
Info: PAIRLIST GROW RATE     0.01
Info: PAIRLIST TRIGGER       0.3
Info: PAIRLISTS PER CYCLE    2
Info: PAIRLISTS ENABLED
Info: MARGIN                 0
Info: HYDROGEN GROUP CUTOFF  2.5
Info: PATCH DIMENSION        16.5
Info: ENERGY OUTPUT STEPS    100
Info: ENERGY EVALUATION STEPS    100
Info: OUTPUT ENERGY PRECISION 4
Info: CROSSTERM ENERGY INCLUDED IN DIHEDRAL
Info: TIMING OUTPUT STEPS    1000
Info: PRESSURE OUTPUT STEPS  100
Info: FIXED ATOMS ACTIVE
Info: SMD ACTIVE
Info: SMD VELOCITY    0.005 ANGSTROM/TIMESTEP
Info: SMD DIRECTION   0.341247 0.357588 0.869299
Info: SMD K   7
Info: SMD K2  0
Info: SMD OUTPUT FREQUENCY   10 TIMESTEPS
Info: SMD FILE ../common/ubq_ww_eq.ref
Info: USING VERLET I (r-RESPA) MTS SCHEME.
Info: C1 SPLITTING OF LONG RANGE ELECTROSTATICS
Info: PLACING ATOMS IN PATCHES BY HYDROGEN GROUPS
Info: RIGID BONDS TO HYDROGEN : ALL
Info:         ERROR TOLERANCE : 1e-08
Info:          MAX ITERATIONS : 100
Info: RIGID WATER USING SETTLE ALGORITHM
Info: RANDOM NUMBER SEED     1748685405
Info: USE HYDROGEN BONDS?    NO
Info: COORDINATE PDB         ../common/ubq_ww_eq.pdb
Info: STRUCTURE FILE         ../common/ubq.psf
Info: PARAMETER file: CHARMM format!
Info: PARAMETERS             ../common/par_all27_prot_lipid.inp
Info: USING ARITHMETIC MEAN TO COMBINE L-J SIGMA PARAMETERS
Info: SUMMARY OF PARAMETERS:
Info: 180 BONDS
Info: 447 ANGLES
Info: 566 DIHEDRAL
Info: 46 IMPROPER
Info: 6 CROSSTERM
Info: 119 VDW
Info: 0 VDW_PAIRS
Info: 0 NBTHOLE_PAIRS
Info: STRUCTURE SUMMARY:
Info: 1231 ATOMS
Info: 1237 BONDS
Info: 2257 ANGLES
Info: 3293 DIHEDRALS
Info: 204 IMPROPERS
Info: 74 CROSSTERMS
Info: 0 EXCLUSIONS
Info: 1 FIXED ATOMS
Info: 629 RIGID BONDS
Info: 0 RIGID BONDS BETWEEN FIXED ATOMS
Info: 3061 DEGREES OF FREEDOM
Info: 602 HYDROGEN GROUPS
Info: 4 ATOMS IN LARGEST HYDROGEN GROUP
Info: 602 MIGRATION GROUPS
Info: 4 ATOMS IN LARGEST MIGRATION GROUP
Info: 0 HYDROGEN GROUPS WITH ALL ATOMS FIXED
Info: TOTAL MASS = 8564.87 amu
Info: TOTAL CHARGE = 1.00955e-06 e
Info: ADDED 6758 IMPLICIT EXCLUSIONS
Info: NONBONDED TABLE R-SQUARED SPACING: 0.0625
Info: NONBONDED TABLE SIZE: 769 POINTS
Info: ORIGINAL ATOMS MINMAX IS 14.866 12.558 0.06  44.468 44.378 33.009
Info: ADJUSTED ATOMS MINMAX IS 19.3226 18.0033 3.28488  41.6364 39.8507 26.5361
Info: REMOVING COM VELOCITY 0.145781 0.292091 0.0270995
Info: 1 SMD ATOMS
TCL: Running for 20000 steps
ETITLE: TS BOND ANGLE DIHED IMPRP ELECT VDW BOUNDARY MISC KINETIC TOTAL TEMP POTENTIAL TOTAL3 TEMPAVG
ENERGY: 0 234.3141 701.0542 323.8407 46.7831 -1821.6315 -279.4432 0.0000 0.0000 972.7055 177.6230 319.8221 -795.0825 189.5187 319.8221
ENERGY: 4000 325.7765 976.1244 426.4060 66.3677 -2470.4856 -134.2679 0.0000 54.7926 1338.8143 583.5281 440.1973 -755.2862 597.6765 443.8530
ENERGY: 8000 333.1710 1016.5836 462.4687 59.5794 -2447.7168 -65.0733 0.0000 12.4956 1501.2597 872.7678 493.6088 -628.4919 889.2786 492.6195
ENERGY: 12000 338.5291 1044.2510 443.8560 72.6106 -2554.5344 -11.3137 0.0000 0.0550 1590.5627 924.0162 522.9713 -666.5464 943.7591 510.3696
ENERGY: 16000 383.8913 1113.5524 466.2798 65.5377 -2524.1789 -31.3748 0.0000 7.5988 1629.0319 1110.3382 535.6198 -518.6937 1126.9277 538.1583
ENERGY: 20000 396.4300 1244.8434 528.2094 79.4710 -2463.1305 -26.8830 0.0000 31.5746 1661.3361 1451.8511 546.2413 -209.4850 1471.2599 556.5997
