Info: SIMULATION PARAMETERS:
Info: TIMESTEP               2
Info: NUMBER OF STEPS        0
Info: STEPS PER CYCLE        10
Info: FIRST LDB TIMESTEP     50
Info: LAST LDB TIMESTEP     -1
Info: HOM BACKGROUND SCALING 1
Info: MIN ATOMS PER PATCH    40
Info: EMPTY PATCH LOAD       40 ATOMS
Info: INITIAL TEMPERATURE    310
Info: CENTER OF MASS MOVING INITIALLY? NO
Info: DIELECTRIC             1
Info: EXCLUDE                SCALED ONE-FOUR
Info: 1-4 ELECTROSTATICS SCALED BY 1
Info: MODIFIED 1-4 VDW PARAMETERS WILL BE USED
Info: DCD FILENAME           ubq_ww_pcf.dcd
Info: DCD FREQUENCY          500
Info: DCD FIRST STEP         500
Info: XST FILENAME           ubq_ww_pcf.xst
Info: XST FREQUENCY          500
Info: NO VELOCITY DCD OUTPUT
Info: NO FORCE DCD OUTPUT
Info: OUTPUT FILENAME        ubq_ww_pcf
Info: BINARY OUTPUT FILES WILL BE USED
Info: RESTART FILENAME       ubq_ww_pcf.restart
Info: RESTART FREQUENCY      500
Info: BINARY RESTART FILES WILL BE USED
Info: SWITCHING ACTIVE
Info: SWITCHING ON           10
Info: SWITCHING OFF          12
Info: PAIRLIST DISTANCE      14
Info: PAIRLIST SHRINK RATE   0.01
Info: PAIRLIST GROW RATE     0.01
Info: PAIRLIST TRIGGER       0.3
Info: PAIRLISTS PER CYCLE    2
Info: PAIRLISTS ENABLED
Info: MARGIN                 0
Info: HYDROGEN GROUP CUTOFF  2.5
Info: PATCH DIMENSION        16.5
Info: ENERGY OUTPUT STEPS    100
Info: ENERGY EVALUATION STEPS    100
Info: OUTPUT ENERGY PRECISION 4
Info: CROSSTERM ENERGY INCLUDED IN DIHEDRAL
Info: TIMING OUTPUT STEPS    1000
Info: PRESSURE OUTPUT STEPS  100
Info: FIXED ATOMS ACTIVE
Info: CONSTANT FORCE ACTIVE
Info: USING VERLET I (r-RESPA) MTS SCHEME.
Info: C1 SPLITTING OF LONG RANGE ELECTROSTATICS
Info: PLACING ATOMS IN PATCHES BY HYDROGEN GROUPS
Info: RIGID BONDS TO HYDROGEN : ALL
Info:         ERROR TOLERANCE : 1e-08
Info:          MAX ITERATIONS : 100
Info: RIGID WATER USING SETTLE ALGORITHM
Info: RANDOM NUMBER SEED     1748687520
Info: USE HYDROGEN BONDS?    NO
Info: COORDINATE PDB         ../common/ubq_ww_eq.pdb
Info: STRUCTURE FILE         ../common/ubq.psf
Info: PARAMETER file: CHARMM format!
Info: PARAMETERS             ../common/par_all27_prot_lipid.inp
Info: USING ARITHMETIC MEAN TO COMBINE L-J SIGMA PARAMETERS
Info: SUMMARY OF PARAMETERS:
Info: 180 BONDS
Info: 447 ANGLES
Info: 566 DIHEDRAL
Info: 46 IMPROPER
Info: 6 CROSSTERM
Info: 119 VDW
Info: 0 VDW_PAIRS
Info: 0 NBTHOLE_PAIRS
Info: STRUCTURE SUMMARY:
Info: 1231 ATOMS
Info: 1237 BONDS
Info: 2257 ANGLES
Info: 3293 DIHEDRALS
Info: 204 IMPROPERS
Info: 74 CROSSTERMS
Info: 0 EXCLUSIONS
Info: 1 CONSTANT FORCES
Info: 1 FIXED ATOMS
Info: 629 RIGID BONDS
Info: 0 RIGID BONDS BETWEEN FIXED ATOMS
Info: 3061 DEGREES OF FREEDOM
Info: 602 HYDROGEN GROUPS
Info: 4 ATOMS IN LARGEST HYDROGEN GROUP
Info: 602 MIGRATION GROUPS
Info: 4 ATOMS IN LARGEST MIGRATION GROUP
Info: 0 HYDROGEN GROUPS WITH ALL ATOMS FIXED
Info: TOTAL MASS = 8564.87 amu
Info: TOTAL CHARGE = 1.00955e-06 e
Info: ADDED 6758 IMPLICIT EXCLUSIONS
Info: NONBONDED TABLE R-SQUARED SPACING: 0.0625
Info: NONBONDED TABLE SIZE: 769 POINTS
Info: ORIGINAL ATOMS MINMAX IS 14.866 12.558 0.06  44.468 44.378 33.009
Info: ADJUSTED ATOMS MINMAX IS 19.3226 18.0033 3.28488  41.6364 39.8507 26.5361
Info: REMOVING COM VELOCITY -0.0734778 0.0943844 -0.0175646
TCL: Running for 20000 steps
ETITLE: TS BOND ANGLE DIHED IMPRP ELECT VDW BOUNDARY MISC KINETIC TOTAL TEMP POTENTIAL TOTAL3 TEMPAVG
ENERGY: 0 234.3141 701.0542 323.8407 46.7831 -1821.6315 -279.4432 0.0000 0.0000 947.2284 152.1459 311.4453 -795.0825 164.0197 311.4453
ENERGY: 3800 319.4535 914.2146 414.9480 65.3861 -2542.0025 -176.9567 0.0000 0.0000 1256.7978 251.8407 413.2306 -1004.9570 266.9170 413.7556
ENERGY: 7600 296.3066 968.0579 411.1933 58.9766 -2620.3605 -172.2257 0.0000 0.0000 1336.2809 278.2291 439.3643 -1058.0518 295.0768 426.4981
ENERGY: 11400 306.1315 1009.7053 429.6617 73.3492 -2648.5287 -173.9291 0.0000 0.0000 1283.6228 280.0127 422.0506 -1003.6102 296.3247 427.2265
ENERGY: 15200 302.9833 977.0658 422.3909 49.6344 -2659.5123 -147.2695 0.0000 0.0000 1331.0459 276.3385 437.6431 -1054.7074 291.9003 432.1427
ENERGY: 19000 333.7241 923.5895 417.0686 46.3086 -2643.3950 -150.2331 0.0000 0.0000 1344.8205 271.8832 442.1721 -1072.9373 289.3516 436.6141
